LTspice 24.1.10 for Windows
Circuit: C:\users\BigPierogi\Documents\advanced_soldering_practice\simulation\oscillator.net
Start Time: Tue Nov 25 20:11:02 2025
solver = Normal
Maximum thread count: 20
tnom = 27
temp = 27
method = modified trap
Direct Newton iteration for .op point succeeded.
Total elapsed time: 0.757 seconds.

Files loaded:
C:\users\BigPierogi\Documents\advanced_soldering_practice\simulation\oscillator.net
C:\users\BigPierogi\AppData\Local\LTspice\lib\cmp\standard.dio
C:\users\BigPierogi\AppData\Local\LTspice\lib\cmp\standard.bjt
C:\users\BigPierogi\AppData\Local\LTspice\lib\cmp\standard.mos

